Version 4
SHEET 1 5108 12116
WIRE -11152 2880 -11504 2880
WIRE -11056 2880 -11152 2880
WIRE -10848 2880 -10992 2880
WIRE -10688 2880 -10768 2880
WIRE -10592 2880 -10688 2880
WIRE -10592 2912 -10592 2880
WIRE -12768 2976 -12992 2976
WIRE -12208 2976 -12768 2976
WIRE -12080 2976 -12208 2976
WIRE -11152 3008 -11152 2880
WIRE -11056 3008 -11152 3008
WIRE -10896 3008 -10976 3008
WIRE -10816 3008 -10896 3008
WIRE -10688 3008 -10688 2880
WIRE -10688 3008 -10736 3008
WIRE -12176 3040 -12704 3040
WIRE -12080 3040 -12080 2976
WIRE -10896 3088 -10896 3008
WIRE -10688 3088 -10832 3088
WIRE -12528 3120 -12640 3120
WIRE -12272 3120 -12464 3120
WIRE -12080 3120 -12080 3104
WIRE -12080 3120 -12272 3120
WIRE -12992 3216 -12992 2976
WIRE -12640 3248 -12640 3120
WIRE -12560 3248 -12640 3248
WIRE -12704 3312 -12704 3040
WIRE -12560 3312 -12704 3312
WIRE -12064 3312 -12336 3312
WIRE -12704 3376 -12704 3312
WIRE -12704 3376 -12864 3376
WIRE -12560 3376 -12704 3376
WIRE -12176 3376 -12176 3040
WIRE -12176 3376 -12336 3376
WIRE -12768 3440 -12768 2976
WIRE -12560 3440 -12768 3440
WIRE -12272 3440 -12272 3120
WIRE -12272 3440 -12336 3440
WIRE -12864 3504 -12864 3376
WIRE -12704 3536 -12704 3376
WIRE -12544 3536 -12704 3536
WIRE -12272 3536 -12272 3440
WIRE -12272 3536 -12480 3536
WIRE -12992 3584 -12992 3296
WIRE -12864 3584 -12992 3584
WIRE -11984 3760 -12032 3760
WIRE -12272 3792 -12272 3536
WIRE -11984 3792 -12272 3792
WIRE -12064 3824 -12064 3312
WIRE -11984 3824 -12064 3824
WIRE -12272 3856 -12272 3792
WIRE -11504 3888 -11504 2880
WIRE -11504 3888 -11760 3888
WIRE -11664 4144 -11760 4144
WIRE -12032 4320 -12032 3760
WIRE -11888 4320 -12032 4320
WIRE -11664 4320 -11664 4144
WIRE -11664 4320 -11824 4320
WIRE -12304 4464 -12752 4464
WIRE -12208 4512 -12208 2976
WIRE -12208 4512 -12688 4512
WIRE -12208 4592 -12208 4512
WIRE -12208 4592 -12368 4592
WIRE -12128 4592 -12208 4592
WIRE -12016 4592 -12048 4592
WIRE -12944 4608 -13104 4608
WIRE -12688 4608 -12688 4512
WIRE -12688 4608 -12944 4608
WIRE -12016 4640 -12016 4592
WIRE -12832 4656 -13008 4656
WIRE -12752 4656 -12752 4464
WIRE -12752 4656 -12832 4656
WIRE -12592 4656 -12752 4656
WIRE -12272 4656 -12368 4656
WIRE -12944 4672 -12944 4608
WIRE -12832 4672 -12832 4656
WIRE -12592 4720 -12752 4720
WIRE -12304 4720 -12304 4464
WIRE -12304 4720 -12368 4720
WIRE -12944 4784 -12944 4752
WIRE -12944 4784 -13104 4784
WIRE -12832 4784 -12832 4752
WIRE -12832 4784 -12944 4784
WIRE -12752 4784 -12752 4720
WIRE -12752 4784 -12832 4784
WIRE -12688 4784 -12688 4608
WIRE -12592 4784 -12688 4784
WIRE -12320 4784 -12368 4784
WIRE -13008 4912 -13008 4656
WIRE -10688 4912 -10688 3088
WIRE -10688 4912 -13008 4912
WIRE -12208 4992 -12208 4592
WIRE -12208 4992 -12368 4992
WIRE -12848 5056 -13104 5056
WIRE -12800 5056 -12848 5056
WIRE -12592 5056 -12800 5056
WIRE -12160 5056 -12368 5056
WIRE -12016 5056 -12096 5056
WIRE -11872 5056 -11936 5056
WIRE -11648 5056 -11872 5056
WIRE -12848 5072 -12848 5056
WIRE -11872 5072 -11872 5056
WIRE -11504 5104 -11616 5104
WIRE -12800 5120 -12800 5056
WIRE -12592 5120 -12800 5120
WIRE -12272 5120 -12272 4656
WIRE -12272 5120 -12368 5120
WIRE -12848 5184 -12848 5152
WIRE -12848 5184 -13104 5184
WIRE -12688 5184 -12688 4784
WIRE -12688 5184 -12848 5184
WIRE -12592 5184 -12688 5184
WIRE -12320 5184 -12320 4784
WIRE -12320 5184 -12368 5184
WIRE -11872 5184 -11872 5152
WIRE -11872 5184 -12320 5184
WIRE -11648 5184 -11648 5152
WIRE -11648 5184 -11872 5184
WIRE -11504 5184 -11648 5184
WIRE -12800 5216 -12800 5120
WIRE -11872 5232 -11872 5184
WIRE -13008 5296 -13008 4912
WIRE -12800 5296 -12800 5280
WIRE -12800 5296 -12944 5296
WIRE -12320 5296 -12320 5184
WIRE -12320 5296 -12800 5296
FLAG -11872 5232 0
FLAG -12016 4640 0
FLAG -12272 3856 0
FLAG -10592 2912 0
SYMBOL SBORKA\\TIMER\\555_ -12480 4688 R0
SYMATTR InstName U1
SYMBOL SBORKA\\TIMER\\555_ -12480 5088 R0
SYMATTR InstName U2
SYMBOL polcap -12160 5072 R270
WINDOW 0 32 32 VTop 2
WINDOW 3 0 32 VBottom 2
SYMATTR InstName C3
SYMATTR Value 10µ
SYMBOL res -11920 5040 R90
WINDOW 0 0 56 VBottom 2
WINDOW 3 32 56 VTop 2
SYMATTR InstName R2
SYMATTR Value 10k
SYMBOL res -11888 5056 R0
SYMATTR InstName R3
SYMATTR Value 4.7k
SYMBOL EXTRA\\Misc\\pot -11648 5104 R180
SYMATTR InstName R16
SYMATTR Value R=2k
SYMBOL cap -12944 5280 R90
WINDOW 0 0 32 VBottom 2
WINDOW 3 32 32 VTop 2
SYMATTR InstName C1
SYMATTR Value 10n
SYMBOL cap -12816 5216 R0
SYMATTR InstName C2
SYMATTR Value 100n
SYMBOL res -12848 4656 R0
SYMATTR InstName R1
SYMATTR Value 1k
SYMBOL voltage -12144 4592 R270
WINDOW 0 32 56 VTop 2
WINDOW 3 -32 56 VBottom 2
WINDOW 123 0 0 Left 2
WINDOW 39 0 0 Left 2
SYMATTR InstName V1
SYMATTR Value 5
SYMBOL SBORKA\\TIMER\\555_ -12448 3344 R0
SYMATTR InstName U3
SYMBOL Dig_Add\\CD4xxx\\cd4017b -11872 3696 R0
SYMATTR InstName U4
SYMATTR SpiceLine VDD={5}  SPEED=1.0  TRIPDT=5e-9
SYMBOL res -13008 3200 R0
SYMATTR InstName R17
SYMATTR Value 1k
SYMBOL cap -12464 3104 R90
WINDOW 0 0 32 VBottom 2
WINDOW 3 32 32 VTop 2
SYMATTR InstName C4
SYMATTR Value 10n
SYMBOL cap -12096 3040 R0
SYMATTR InstName C6
SYMATTR Value 10n
SYMBOL polcap -12544 3552 R270
WINDOW 0 32 32 VTop 2
WINDOW 3 0 32 VBottom 2
SYMATTR InstName C5
SYMATTR Value 4.7µ
SYMBOL diode -11824 4304 R90
WINDOW 0 0 32 VBottom 2
WINDOW 3 32 32 VTop 2
SYMATTR InstName D2
SYMBOL LED -11056 2896 R270
WINDOW 0 72 32 VTop 2
WINDOW 3 0 32 VBottom 2
SYMATTR InstName D3
SYMBOL res -10752 2864 R90
WINDOW 0 0 56 VBottom 2
WINDOW 3 32 56 VTop 2
SYMATTR InstName R15
SYMATTR Value 470
SYMBOL diode -10896 3104 R270
WINDOW 0 32 32 VTop 2
WINDOW 3 0 32 VBottom 2
SYMATTR InstName D4
SYMBOL res -12880 3488 R0
SYMATTR InstName R6
SYMATTR Value 20k
SYMBOL res -12960 4656 R0
WINDOW 3 36 68 Left 2
SYMATTR Value 100k
SYMATTR InstName R4
SYMBOL res -12864 5056 R0
SYMATTR InstName R5
SYMATTR Value 100k
SYMBOL res -10720 2992 R90
WINDOW 0 0 56 VBottom 2
WINDOW 3 32 56 VTop 2
SYMATTR InstName R7
SYMATTR Value 50k
SYMBOL res -10960 2992 R90
WINDOW 0 0 56 VBottom 2
WINDOW 3 32 56 VTop 2
SYMATTR InstName R8
SYMATTR Value 1k
TEXT -13104 5352 Left 2 !.tran 1.4s
